
     RDKit          3D

 53 57  0  0  0  0  0  0  0  0999 V2000
    3.5995   -1.7679   -3.6851 O   0  0  0  0  0  0  0  0  0  0  0  0
    4.7415   -1.3040   -3.1473 C   0  0  0  0  0  0  0  0  0  0  0  0
    5.8243   -1.5743   -3.6318 O   0  0  0  0  0  0  0  0  0  0  0  0
    4.5114   -0.4645   -1.9462 C   0  0  0  0  0  0  0  0  0  0  0  0
    5.6221    0.0759   -1.2974 C   0  0  0  0  0  0  0  0  0  0  0  0
    5.4396    0.8673   -0.1689 C   0  0  0  0  0  0  0  0  0  0  0  0
    4.1500    1.1172    0.3148 C   0  0  0  0  0  0  0  0  0  0  0  0
    3.0151    0.5847   -0.3138 C   0  0  0  0  0  0  0  0  0  0  0  0
    1.7005    0.8324    0.1844 N   0  0  0  0  0  0  0  0  0  0  0  0
    1.3672    1.7247    1.2013 C   0  0  0  0  0  0  0  0  0  0  0  0
    2.0493    2.4241    1.9312 O   0  0  0  0  0  0  0  0  0  0  0  0
   -0.1091    1.7712    1.2876 C   0  0  0  0  0  0  0  0  0  0  0  0
   -0.7786    2.6250    2.1124 O   0  0  0  0  0  0  0  0  0  0  0  0
   -0.5890    0.9255    0.3770 C   0  0  0  0  0  0  0  0  0  0  0  0
   -1.9936    0.7228   -0.0145 C   0  0  0  0  0  0  0  0  0  0  0  0
   -2.2615    0.4931   -1.1912 O   0  0  0  0  0  0  0  0  0  0  0  0
   -3.0773    0.7725    0.9969 C   0  0  0  0  0  0  0  0  0  0  0  0
   -4.3321    1.2472    0.5987 C   0  0  0  0  0  0  0  0  0  0  0  0
   -5.3897    1.2831    1.5073 C   0  0  0  0  0  0  0  0  0  0  0  0
   -5.2014    0.8353    2.8154 C   0  0  0  0  0  0  0  0  0  0  0  0
   -3.9535    0.3434    3.2293 C   0  0  0  0  0  0  0  0  0  0  0  0
   -3.7595   -0.1721    4.6343 C   0  0  0  0  0  0  0  0  0  0  0  0
   -2.4815   -0.0231    5.0828 F   0  0  0  0  0  0  0  0  0  0  0  0
   -4.5502    0.4535    5.5495 F   0  0  0  0  0  0  0  0  0  0  0  0
   -4.0396   -1.4997    4.7395 F   0  0  0  0  0  0  0  0  0  0  0  0
   -2.8966    0.2998    2.3033 C   0  0  0  0  0  0  0  0  0  0  0  0
    0.4969    0.2169   -0.3715 C   0  0  2  0  0  0  0  0  0  0  0  0
    0.4226   -1.2926   -0.1515 C   0  0  0  0  0  0  0  0  0  0  0  0
   -0.1736   -2.1058   -1.1477 C   0  0  0  0  0  0  0  0  0  0  0  0
   -0.2810   -3.4910   -0.9813 C   0  0  0  0  0  0  0  0  0  0  0  0
   -1.0000   -4.4500   -2.2113 Cl  0  0  0  0  0  0  0  0  0  0  0  0
    0.1989   -4.0510    0.1843 C   0  0  0  0  0  0  0  0  0  0  0  0
    0.7669   -3.2677    1.1607 C   0  0  0  0  0  0  0  0  0  0  0  0
    0.8913   -1.8987    1.0294 C   0  0  0  0  0  0  0  0  0  0  0  0
    1.1750   -3.9898    2.2390 O   0  0  0  0  0  0  0  0  0  0  0  0
    0.8089   -5.3231    1.8295 C   0  0  0  0  0  0  0  0  0  0  0  0
    0.1843   -5.3676    0.5321 O   0  0  0  0  0  0  0  0  0  0  0  0
    3.2197   -0.2068   -1.4565 C   0  0  0  0  0  0  0  0  0  0  0  0
    3.8998   -2.3024   -4.4509 H   0  0  0  0  0  0  0  0  0  0  0  0
    6.6275   -0.1161   -1.6671 H   0  0  0  0  0  0  0  0  0  0  0  0
    6.3001    1.2922    0.3433 H   0  0  0  0  0  0  0  0  0  0  0  0
    4.0745    1.7332    1.2063 H   0  0  0  0  0  0  0  0  0  0  0  0
   -0.0831    3.1311    2.5845 H   0  0  0  0  0  0  0  0  0  0  0  0
   -4.4894    1.5899   -0.4225 H   0  0  0  0  0  0  0  0  0  0  0  0
   -6.3620    1.6562    1.1931 H   0  0  0  0  0  0  0  0  0  0  0  0
   -6.0372    0.8665    3.5140 H   0  0  0  0  0  0  0  0  0  0  0  0
   -1.9385   -0.1114    2.6155 H   0  0  0  0  0  0  0  0  0  0  0  0
    0.4477    0.4704   -1.4382 H   0  0  0  0  0  0  0  0  0  0  0  0
   -0.5648   -1.6498   -2.0575 H   0  0  0  0  0  0  0  0  0  0  0  0
    1.3517   -1.3251    1.8284 H   0  0  0  0  0  0  0  0  0  0  0  0
    0.1143   -5.7387    2.5685 H   0  0  0  0  0  0  0  0  0  0  0  0
    1.7119   -5.9440    1.8069 H   0  0  0  0  0  0  0  0  0  0  0  0
    2.3827   -0.6342   -1.9983 H   0  0  0  0  0  0  0  0  0  0  0  0
  1  2  1  0
  2  3  2  0
  2  4  1  0
  4  5  1  0
  5  6  2  0
  6  7  1  0
  7  8  2  0
  8  9  1  0
  9 10  1  0
 10 11  2  0
 10 12  1  0
 12 13  1  0
 12 14  2  0
 14 15  1  0
 15 16  2  0
 15 17  1  0
 17 18  1  0
 18 19  2  0
 19 20  1  0
 20 21  2  0
 21 22  1  0
 22 23  1  0
 22 24  1  0
 22 25  1  0
 21 26  1  0
 14 27  1  0
 27 28  1  0
 28 29  1  0
 29 30  2  0
 30 31  1  0
 30 32  1  0
 32 33  2  0
 33 34  1  0
 33 35  1  0
 35 36  1  0
 36 37  1  0
  8 38  1  0
 38  4  2  0
 27  9  1  0
 34 28  2  0
 26 17  2  0
 37 32  1  0
  1 39  1  0
  5 40  1  0
  6 41  1  0
  7 42  1  0
 13 43  1  0
 18 44  1  0
 19 45  1  0
 20 46  1  0
 26 47  1  0
 27 48  1  6
 29 49  1  0
 34 50  1  0
 36 51  1  0
 36 52  1  0
 38 53  1  0
M  END
$$$$
