
     RDKit          3D

 47 51  0  0  0  0  0  0  0  0999 V2000
   -3.0390    1.6509   -5.3087 O   0  0  0  0  0  0  0  0  0  0  0  0
   -2.4556    0.9195   -4.3439 C   0  0  0  0  0  0  0  0  0  0  0  0
   -1.9777   -0.1750   -4.5784 O   0  0  0  0  0  0  0  0  0  0  0  0
   -2.4706    1.5889   -3.0209 C   0  0  0  0  0  0  0  0  0  0  0  0
   -3.0568    2.8407   -2.8324 C   0  0  0  0  0  0  0  0  0  0  0  0
   -3.0447    3.4171   -1.5667 C   0  0  0  0  0  0  0  0  0  0  0  0
   -2.4475    2.7478   -0.4917 C   0  0  0  0  0  0  0  0  0  0  0  0
   -1.8476    1.4908   -0.6528 C   0  0  0  0  0  0  0  0  0  0  0  0
   -1.2309    0.8123    0.4408 N   0  0  0  0  0  0  0  0  0  0  0  0
   -1.3111    1.1868    1.7824 C   0  0  0  0  0  0  0  0  0  0  0  0
   -1.8245    2.1466    2.3322 O   0  0  0  0  0  0  0  0  0  0  0  0
   -0.6520    0.1301    2.5796 C   0  0  0  0  0  0  0  0  0  0  0  0
   -0.6313    0.1197    3.9420 O   0  0  0  0  0  0  0  0  0  0  0  0
   -0.1988   -0.7827    1.7234 C   0  0  0  0  0  0  0  0  0  0  0  0
    0.4289   -2.0720    2.0577 C   0  0  0  0  0  0  0  0  0  0  0  0
   -0.0315   -3.0689    1.4970 O   0  0  0  0  0  0  0  0  0  0  0  0
    1.5506   -2.1490    2.9810 C   0  0  0  0  0  0  0  0  0  0  0  0
    2.6035   -0.8217    3.2629 S   0  0  0  0  0  0  0  0  0  0  0  0
    3.5550   -1.7288    4.3249 C   0  0  0  0  0  0  0  0  0  0  0  0
    4.9090   -1.0018    5.0898 Cl  0  0  0  0  0  0  0  0  0  0  0  0
    3.1338   -3.0243    4.4664 C   0  0  0  0  0  0  0  0  0  0  0  0
    1.9756   -3.2733    3.6712 C   0  0  0  0  0  0  0  0  0  0  0  0
   -0.4889   -0.4394    0.3010 C   0  0  2  0  0  0  0  0  0  0  0  0
    0.7991   -0.3106   -0.5064 C   0  0  0  0  0  0  0  0  0  0  0  0
    1.6156    0.8462   -0.4382 C   0  0  0  0  0  0  0  0  0  0  0  0
    2.8091    0.9299   -1.1643 C   0  0  0  0  0  0  0  0  0  0  0  0
    3.7743    2.3471   -1.0635 Cl  0  0  0  0  0  0  0  0  0  0  0  0
    3.1811   -0.1447   -1.9448 C   0  0  0  0  0  0  0  0  0  0  0  0
    2.4001   -1.2740   -2.0071 C   0  0  0  0  0  0  0  0  0  0  0  0
    1.2168   -1.3913   -1.3051 C   0  0  0  0  0  0  0  0  0  0  0  0
    2.9280   -2.2308   -2.8169 O   0  0  0  0  0  0  0  0  0  0  0  0
    4.1277   -1.5732   -3.2711 C   0  0  0  0  0  0  0  0  0  0  0  0
    4.2987   -0.2550   -2.7151 O   0  0  0  0  0  0  0  0  0  0  0  0
   -1.8734    0.9229   -1.9366 C   0  0  0  0  0  0  0  0  0  0  0  0
   -2.9546    1.0961   -6.1125 H   0  0  0  0  0  0  0  0  0  0  0  0
   -3.5233    3.3719   -3.6582 H   0  0  0  0  0  0  0  0  0  0  0  0
   -3.4980    4.3934   -1.4087 H   0  0  0  0  0  0  0  0  0  0  0  0
   -2.4601    3.2570    0.4679 H   0  0  0  0  0  0  0  0  0  0  0  0
   -1.0920    0.9407    4.2176 H   0  0  0  0  0  0  0  0  0  0  0  0
    3.6247   -3.7577    5.0937 H   0  0  0  0  0  0  0  0  0  0  0  0
    1.4683   -4.2301    3.6081 H   0  0  0  0  0  0  0  0  0  0  0  0
   -1.1631   -1.1858   -0.1385 H   0  0  0  0  0  0  0  0  0  0  0  0
    1.3205    1.6912    0.1818 H   0  0  0  0  0  0  0  0  0  0  0  0
    0.6360   -2.3079   -1.3761 H   0  0  0  0  0  0  0  0  0  0  0  0
    4.0922   -1.4924   -4.3636 H   0  0  0  0  0  0  0  0  0  0  0  0
    4.9916   -2.1870   -2.9914 H   0  0  0  0  0  0  0  0  0  0  0  0
   -1.4425   -0.0549   -2.1321 H   0  0  0  0  0  0  0  0  0  0  0  0
  1  2  1  0
  2  3  2  0
  2  4  1  0
  4  5  1  0
  5  6  2  0
  6  7  1  0
  7  8  2  0
  8  9  1  0
  9 10  1  0
 10 11  2  0
 10 12  1  0
 12 13  1  0
 12 14  2  0
 14 15  1  0
 15 16  2  0
 15 17  1  0
 17 18  1  0
 18 19  1  0
 19 20  1  0
 19 21  2  0
 21 22  1  0
 14 23  1  0
 23 24  1  0
 24 25  1  0
 25 26  2  0
 26 27  1  0
 26 28  1  0
 28 29  2  0
 29 30  1  0
 29 31  1  0
 31 32  1  0
 32 33  1  0
  8 34  1  0
 34  4  2  0
 23  9  1  0
 30 24  2  0
 22 17  2  0
 33 28  1  0
  1 35  1  0
  5 36  1  0
  6 37  1  0
  7 38  1  0
 13 39  1  0
 21 40  1  0
 22 41  1  0
 23 42  1  6
 25 43  1  0
 30 44  1  0
 32 45  1  0
 32 46  1  0
 34 47  1  0
M  END
$$$$
