
     RDKit          3D

 66 69  0  0  0  0  0  0  0  0999 V2000
   -4.0723   -0.5320    4.3946 C   0  0  0  0  0  0  0  0  0  0  0  0
   -2.8114   -0.0008    4.1083 C   0  0  0  0  0  0  0  0  0  0  0  0
   -2.4583    0.3579    2.7941 C   0  0  0  0  0  0  0  0  0  0  0  0
   -1.0692    0.9350    2.4788 C   0  0  2  0  0  0  0  0  0  0  0  0
   -1.0240    2.3601    3.0850 C   0  0  0  0  0  0  0  0  0  0  0  0
   -0.8628    1.1627    0.9921 N   0  0  0  0  0  0  0  0  0  0  0  0
    0.3623    0.7737    0.7362 C   0  0  0  0  0  0  0  0  0  0  0  0
    0.9221    0.8443   -0.6388 C   0  0  0  0  0  0  0  0  0  0  0  0
    0.3206    1.7117   -1.5556 C   0  0  0  0  0  0  0  0  0  0  0  0
    0.8195    1.8355   -2.8585 C   0  0  0  0  0  0  0  0  0  0  0  0
    1.9382    1.1020   -3.2834 C   0  0  0  0  0  0  0  0  0  0  0  0
    2.5276    1.2306   -4.6994 C   0  0  0  0  0  0  0  0  0  0  0  0
    2.5029   -0.1455   -5.3995 C   0  0  0  0  0  0  0  0  0  0  0  0
    1.7609    2.2181   -5.6079 C   0  0  0  0  0  0  0  0  0  0  0  0
    3.9859    1.7295   -4.6103 C   0  0  0  0  0  0  0  0  0  0  0  0
    2.5258    0.2239   -2.3498 C   0  0  0  0  0  0  0  0  0  0  0  0
    2.0111    0.0718   -1.0538 C   0  0  0  0  0  0  0  0  0  0  0  0
    2.6189   -0.8071   -0.1890 O   0  0  0  0  0  0  0  0  0  0  0  0
    2.4277   -2.1662   -0.6081 C   0  0  0  0  0  0  0  0  0  0  0  0
    2.9662   -3.0725    0.4842 C   0  0  0  0  0  0  0  0  0  0  0  0
    1.0719    0.2706    1.7944 N   0  0  0  0  0  0  0  0  0  0  0  0
    0.1690   -0.0059    2.9077 C   0  0  2  0  0  0  0  0  0  0  0  0
   -0.1173   -1.5295    2.9090 C   0  0  0  0  0  0  0  0  0  0  0  0
    0.1571   -2.3474    4.0223 C   0  0  0  0  0  0  0  0  0  0  0  0
   -0.1034   -3.7234    3.9995 C   0  0  0  0  0  0  0  0  0  0  0  0
   -0.6473   -4.3107    2.8632 C   0  0  0  0  0  0  0  0  0  0  0  0
   -0.9619   -6.0008    2.8371 Cl  0  0  0  0  0  0  0  0  0  0  0  0
   -0.9352   -3.5342    1.7492 C   0  0  0  0  0  0  0  0  0  0  0  0
   -0.6712   -2.1612    1.7738 C   0  0  0  0  0  0  0  0  0  0  0  0
    0.8971    0.4779    4.1781 C   0  0  0  0  0  0  0  0  0  0  0  0
   -3.4211    0.1895    1.7828 C   0  0  0  0  0  0  0  0  0  0  0  0
   -4.6824   -0.3405    2.0679 C   0  0  0  0  0  0  0  0  0  0  0  0
   -5.0010   -0.7022    3.3724 C   0  0  0  0  0  0  0  0  0  0  0  0
   -6.5521   -1.3571    3.7260 Cl  0  0  0  0  0  0  0  0  0  0  0  0
   -4.3219   -0.8088    5.4152 H   0  0  0  0  0  0  0  0  0  0  0  0
   -2.1088    0.1271    4.9274 H   0  0  0  0  0  0  0  0  0  0  0  0
   -0.0939    2.8792    2.8263 H   0  0  0  0  0  0  0  0  0  0  0  0
   -1.1201    2.3516    4.1760 H   0  0  0  0  0  0  0  0  0  0  0  0
   -1.8431    2.9765    2.6927 H   0  0  0  0  0  0  0  0  0  0  0  0
   -0.5382    2.3102   -1.2573 H   0  0  0  0  0  0  0  0  0  0  0  0
    0.3103    2.5319   -3.5197 H   0  0  0  0  0  0  0  0  0  0  0  0
    2.8845   -0.0742   -6.4248 H   0  0  0  0  0  0  0  0  0  0  0  0
    1.4826   -0.5438   -5.4503 H   0  0  0  0  0  0  0  0  0  0  0  0
    3.1197   -0.8869   -4.8798 H   0  0  0  0  0  0  0  0  0  0  0  0
    1.7681    3.2342   -5.1964 H   0  0  0  0  0  0  0  0  0  0  0  0
    0.7171    1.9124   -5.7454 H   0  0  0  0  0  0  0  0  0  0  0  0
    2.2149    2.2718   -6.6047 H   0  0  0  0  0  0  0  0  0  0  0  0
    4.0420    2.6933   -4.0905 H   0  0  0  0  0  0  0  0  0  0  0  0
    4.4196    1.8629   -5.6083 H   0  0  0  0  0  0  0  0  0  0  0  0
    4.6321    1.0276   -4.0718 H   0  0  0  0  0  0  0  0  0  0  0  0
    3.4077   -0.3488   -2.6267 H   0  0  0  0  0  0  0  0  0  0  0  0
    1.3613   -2.3712   -0.7621 H   0  0  0  0  0  0  0  0  0  0  0  0
    2.9742   -2.3651   -1.5367 H   0  0  0  0  0  0  0  0  0  0  0  0
    2.8264   -4.1248    0.2217 H   0  0  0  0  0  0  0  0  0  0  0  0
    2.4644   -2.8757    1.4364 H   0  0  0  0  0  0  0  0  0  0  0  0
    4.0334   -2.8872    0.6447 H   0  0  0  0  0  0  0  0  0  0  0  0
    1.8054   -0.4005    1.5844 H   0  0  0  0  0  0  0  0  0  0  0  0
    0.5761   -1.9404    4.9388 H   0  0  0  0  0  0  0  0  0  0  0  0
    0.1197   -4.3272    4.8754 H   0  0  0  0  0  0  0  0  0  0  0  0
   -1.3704   -3.9818    0.8599 H   0  0  0  0  0  0  0  0  0  0  0  0
   -0.9214   -1.5830    0.8860 H   0  0  0  0  0  0  0  0  0  0  0  0
    1.8076   -0.1060    4.3630 H   0  0  0  0  0  0  0  0  0  0  0  0
    0.2594    0.4034    5.0646 H   0  0  0  0  0  0  0  0  0  0  0  0
    1.2360    1.5161    4.0929 H   0  0  0  0  0  0  0  0  0  0  0  0
   -3.1933    0.4704    0.7560 H   0  0  0  0  0  0  0  0  0  0  0  0
   -5.4058   -0.4650    1.2671 H   0  0  0  0  0  0  0  0  0  0  0  0
  1  2  2  0
  2  3  1  0
  3  4  1  0
  4  5  1  1
  4  6  1  0
  6  7  2  0
  7  8  1  0
  8  9  1  0
  9 10  2  0
 10 11  1  0
 11 12  1  0
 12 13  1  0
 12 14  1  0
 12 15  1  0
 11 16  2  0
 16 17  1  0
 17 18  1  0
 18 19  1  0
 19 20  1  0
  7 21  1  0
 21 22  1  0
 22 23  1  0
 23 24  1  0
 24 25  2  0
 25 26  1  0
 26 27  1  0
 26 28  2  0
 28 29  1  0
 22 30  1  1
  3 31  2  0
 31 32  1  0
 32 33  2  0
 33 34  1  0
 33  1  1  0
 22  4  1  0
 29 23  2  0
 17  8  2  0
  1 35  1  0
  2 36  1  0
  5 37  1  0
  5 38  1  0
  5 39  1  0
  9 40  1  0
 10 41  1  0
 13 42  1  0
 13 43  1  0
 13 44  1  0
 14 45  1  0
 14 46  1  0
 14 47  1  0
 15 48  1  0
 15 49  1  0
 15 50  1  0
 16 51  1  0
 19 52  1  0
 19 53  1  0
 20 54  1  0
 20 55  1  0
 20 56  1  0
 21 57  1  0
 24 58  1  0
 25 59  1  0
 28 60  1  0
 29 61  1  0
 30 62  1  0
 30 63  1  0
 30 64  1  0
 31 65  1  0
 32 66  1  0
M  END
$$$$
