
     RDKit          3D

 64 67  0  0  0  0  0  0  0  0999 V2000
   -3.5127    2.6304    0.1851 C   0  0  0  0  0  0  0  0  0  0  0  0
   -4.0906    1.3601    0.1877 C   0  0  0  0  0  0  0  0  0  0  0  0
   -3.5683    0.3646   -0.6422 C   0  0  0  0  0  0  0  0  0  0  0  0
   -4.3192   -1.2485   -0.6534 S   0  0  0  0  0  0  0  0  0  0  0  0
   -5.6826   -1.0916   -0.1905 O   0  0  0  0  0  0  0  0  0  0  0  0
   -4.0322   -1.8668   -1.9310 O   0  0  0  0  0  0  0  0  0  0  0  0
   -3.4897   -2.0720    0.5741 N   0  0  0  0  0  0  0  0  0  0  0  0
   -2.0675   -2.2147    0.4465 C   0  0  0  0  0  0  0  0  0  0  0  0
   -1.2629   -1.5741    1.4029 C   0  0  0  0  0  0  0  0  0  0  0  0
   -1.8983   -0.8580    2.4469 N   0  0  0  0  0  0  0  0  0  0  0  0
   -1.9280   -1.6426    3.7102 C   0  0  0  0  0  0  0  0  0  0  0  0
   -2.7321   -0.8667    4.7689 C   0  0  0  0  0  0  0  0  0  0  0  0
   -2.1887    0.4471    4.9863 O   0  0  0  0  0  0  0  0  0  0  0  0
   -2.1882    1.2017    3.7616 C   0  0  0  0  0  0  0  0  0  0  0  0
   -1.3436    0.4985    2.6880 C   0  0  0  0  0  0  0  0  0  0  0  0
    0.1259   -1.7008    1.2802 C   0  0  0  0  0  0  0  0  0  0  0  0
    0.7169   -2.4354    0.2295 C   0  0  0  0  0  0  0  0  0  0  0  0
   -0.1095   -3.0742   -0.7134 C   0  0  0  0  0  0  0  0  0  0  0  0
   -1.5036   -2.9647   -0.5832 C   0  0  0  0  0  0  0  0  0  0  0  0
    0.4626   -3.8187   -1.7816 N   0  0  0  0  0  0  0  0  0  0  0  0
   -0.3923   -4.4660   -2.7677 C   0  0  0  0  0  0  0  0  0  0  0  0
    1.8412   -3.9493   -1.9320 C   0  0  0  0  0  0  0  0  0  0  0  0
    2.3705   -4.5820   -2.8423 O   0  0  0  0  0  0  0  0  0  0  0  0
    2.7426   -3.2607   -0.9012 C   0  0  0  0  0  0  0  0  0  0  0  0
    3.9606   -3.3712   -1.0194 O   0  0  0  0  0  0  0  0  0  0  0  0
    2.1322   -2.5376    0.1229 N   0  0  0  0  0  0  0  0  0  0  0  0
    2.9965   -1.8828    1.0935 C   0  0  0  0  0  0  0  0  0  0  0  0
   -2.4998    0.6397   -1.4993 C   0  0  0  0  0  0  0  0  0  0  0  0
   -1.9242    1.9111   -1.4946 C   0  0  0  0  0  0  0  0  0  0  0  0
   -2.4209    2.9143   -0.6495 C   0  0  0  0  0  0  0  0  0  0  0  0
   -1.7905    4.2878   -0.6363 C   0  0  0  0  0  0  0  0  0  0  0  0
   -0.8894    4.5365    0.5894 C   0  0  0  0  0  0  0  0  0  0  0  0
   -0.5329    6.0224    0.6782 C   0  0  0  0  0  0  0  0  0  0  0  0
    0.3940    3.7033    0.5366 C   0  0  0  0  0  0  0  0  0  0  0  0
   -3.9231    3.4034    0.8322 H   0  0  0  0  0  0  0  0  0  0  0  0
   -4.9440    1.1581    0.8313 H   0  0  0  0  0  0  0  0  0  0  0  0
   -3.7195   -1.6417    1.4754 H   0  0  0  0  0  0  0  0  0  0  0  0
   -0.9055   -1.8010    4.0767 H   0  0  0  0  0  0  0  0  0  0  0  0
   -2.3970   -2.6200    3.5471 H   0  0  0  0  0  0  0  0  0  0  0  0
   -3.7827   -0.7696    4.4700 H   0  0  0  0  0  0  0  0  0  0  0  0
   -2.7023   -1.4005    5.7238 H   0  0  0  0  0  0  0  0  0  0  0  0
   -1.7683    2.1886    3.9795 H   0  0  0  0  0  0  0  0  0  0  0  0
   -3.2231    1.3405    3.4276 H   0  0  0  0  0  0  0  0  0  0  0  0
   -1.3577    1.0856    1.7655 H   0  0  0  0  0  0  0  0  0  0  0  0
   -0.3096    0.4358    3.0480 H   0  0  0  0  0  0  0  0  0  0  0  0
    0.7473   -1.2264    2.0313 H   0  0  0  0  0  0  0  0  0  0  0  0
   -2.1771   -3.4616   -1.2745 H   0  0  0  0  0  0  0  0  0  0  0  0
    0.1863   -4.9865   -3.5361 H   0  0  0  0  0  0  0  0  0  0  0  0
   -1.0252   -5.2074   -2.2697 H   0  0  0  0  0  0  0  0  0  0  0  0
   -1.0065   -3.7114   -3.2695 H   0  0  0  0  0  0  0  0  0  0  0  0
    2.8123   -0.8038    1.0760 H   0  0  0  0  0  0  0  0  0  0  0  0
    4.0568   -2.0404    0.8769 H   0  0  0  0  0  0  0  0  0  0  0  0
    2.7979   -2.2898    2.0901 H   0  0  0  0  0  0  0  0  0  0  0  0
   -2.1122   -0.1241   -2.1696 H   0  0  0  0  0  0  0  0  0  0  0  0
   -1.0872    2.1167   -2.1592 H   0  0  0  0  0  0  0  0  0  0  0  0
   -2.6023    5.0274   -0.6588 H   0  0  0  0  0  0  0  0  0  0  0  0
   -1.2220    4.4476   -1.5618 H   0  0  0  0  0  0  0  0  0  0  0  0
   -1.4323    4.2680    1.5047 H   0  0  0  0  0  0  0  0  0  0  0  0
    0.0895    6.2217    1.5570 H   0  0  0  0  0  0  0  0  0  0  0  0
   -1.4367    6.6347    0.7653 H   0  0  0  0  0  0  0  0  0  0  0  0
    0.0172    6.3532   -0.2094 H   0  0  0  0  0  0  0  0  0  0  0  0
    0.9702    3.9188   -0.3697 H   0  0  0  0  0  0  0  0  0  0  0  0
    0.1768    2.6313    0.5533 H   0  0  0  0  0  0  0  0  0  0  0  0
    1.0315    3.9199    1.4006 H   0  0  0  0  0  0  0  0  0  0  0  0
  1  2  2  0
  2  3  1  0
  3  4  1  0
  4  5  2  0
  4  6  2  0
  4  7  1  0
  7  8  1  0
  8  9  2  0
  9 10  1  0
 10 11  1  0
 11 12  1  0
 12 13  1  0
 13 14  1  0
 14 15  1  0
  9 16  1  0
 16 17  2  0
 17 18  1  0
 18 19  2  0
 18 20  1  0
 20 21  1  0
 20 22  1  0
 22 23  2  0
 22 24  1  0
 24 25  2  0
 24 26  1  0
 26 27  1  0
  3 28  2  0
 28 29  1  0
 29 30  2  0
 30 31  1  0
 31 32  1  0
 32 33  1  0
 32 34  1  0
 30  1  1  0
 19  8  1  0
 15 10  1  0
 26 17  1  0
  1 35  1  0
  2 36  1  0
  7 37  1  0
 11 38  1  0
 11 39  1  0
 12 40  1  0
 12 41  1  0
 14 42  1  0
 14 43  1  0
 15 44  1  0
 15 45  1  0
 16 46  1  0
 19 47  1  0
 21 48  1  0
 21 49  1  0
 21 50  1  0
 27 51  1  0
 27 52  1  0
 27 53  1  0
 28 54  1  0
 29 55  1  0
 31 56  1  0
 31 57  1  0
 32 58  1  0
 33 59  1  0
 33 60  1  0
 33 61  1  0
 34 62  1  0
 34 63  1  0
 34 64  1  0
M  END
$$$$
