
     RDKit          3D

 63 66  0  0  0  0  0  0  0  0999 V2000
   -2.2913   -2.3746   -1.1555 C   0  0  0  0  0  0  0  0  0  0  0  0
   -2.2318   -1.5575   -2.2847 C   0  0  0  0  0  0  0  0  0  0  0  0
   -1.2405   -1.7796   -3.2442 C   0  0  0  0  0  0  0  0  0  0  0  0
   -1.1439   -0.7279   -4.6764 S   0  0  0  0  0  0  0  0  0  0  0  0
   -2.4271   -0.0752   -4.8375 O   0  0  0  0  0  0  0  0  0  0  0  0
   -0.5654   -1.5083   -5.7506 O   0  0  0  0  0  0  0  0  0  0  0  0
    0.0175    0.4276   -4.2383 N   0  0  0  0  0  0  0  0  0  0  0  0
   -0.1914    1.1463   -3.0142 C   0  0  0  0  0  0  0  0  0  0  0  0
    0.7262    0.9285   -1.9743 C   0  0  0  0  0  0  0  0  0  0  0  0
    1.8400    0.0949   -2.2188 N   0  0  0  0  0  0  0  0  0  0  0  0
    2.1730   -0.8884   -1.1653 C   0  0  0  0  0  0  0  0  0  0  0  0
    3.5752   -0.5168   -0.6967 C   0  0  0  0  0  0  0  0  0  0  0  0
    4.1998    0.0605   -1.9529 C   0  0  0  0  0  0  0  0  0  0  0  0
    3.0557    0.8819   -2.5356 C   0  0  0  0  0  0  0  0  0  0  0  0
    0.5017    1.5831   -0.7572 C   0  0  0  0  0  0  0  0  0  0  0  0
   -0.6075    2.4335   -0.5620 C   0  0  0  0  0  0  0  0  0  0  0  0
   -1.5051    2.6486   -1.6243 C   0  0  0  0  0  0  0  0  0  0  0  0
   -1.2764    2.0047   -2.8514 C   0  0  0  0  0  0  0  0  0  0  0  0
   -2.6289    3.5031   -1.4522 N   0  0  0  0  0  0  0  0  0  0  0  0
   -3.5657    3.7154   -2.5474 C   0  0  0  0  0  0  0  0  0  0  0  0
   -2.8800    4.1547   -0.2471 C   0  0  0  0  0  0  0  0  0  0  0  0
   -3.8398    4.8988   -0.0617 O   0  0  0  0  0  0  0  0  0  0  0  0
   -1.9011    3.9240    0.9098 C   0  0  0  0  0  0  0  0  0  0  0  0
   -2.1102    4.4931    1.9785 O   0  0  0  0  0  0  0  0  0  0  0  0
   -0.8181    3.0737    0.6911 N   0  0  0  0  0  0  0  0  0  0  0  0
    0.1012    2.8534    1.7972 C   0  0  0  0  0  0  0  0  0  0  0  0
   -0.3421   -2.8400   -3.1083 C   0  0  0  0  0  0  0  0  0  0  0  0
   -0.4090   -3.6557   -1.9779 C   0  0  0  0  0  0  0  0  0  0  0  0
   -1.3755   -3.4232   -0.9878 C   0  0  0  0  0  0  0  0  0  0  0  0
   -1.4230   -4.2902    0.2489 C   0  0  0  0  0  0  0  0  0  0  0  0
   -0.3078   -3.9700    1.2639 C   0  0  0  0  0  0  0  0  0  0  0  0
   -0.4916   -2.5916    1.9049 C   0  0  0  0  0  0  0  0  0  0  0  0
   -0.2751   -5.0439    2.3540 C   0  0  0  0  0  0  0  0  0  0  0  0
   -3.0564   -2.1869   -0.4048 H   0  0  0  0  0  0  0  0  0  0  0  0
   -2.9516   -0.7510   -2.4031 H   0  0  0  0  0  0  0  0  0  0  0  0
    0.9424   -0.0159   -4.2331 H   0  0  0  0  0  0  0  0  0  0  0  0
    1.4593   -0.9319   -0.3360 H   0  0  0  0  0  0  0  0  0  0  0  0
    2.1963   -1.8811   -1.6288 H   0  0  0  0  0  0  0  0  0  0  0  0
    3.5251    0.2482    0.0871 H   0  0  0  0  0  0  0  0  0  0  0  0
    4.1260   -1.3761   -0.3044 H   0  0  0  0  0  0  0  0  0  0  0  0
    5.0878    0.6648   -1.7484 H   0  0  0  0  0  0  0  0  0  0  0  0
    4.4797   -0.7453   -2.6420 H   0  0  0  0  0  0  0  0  0  0  0  0
    3.1660    1.0104   -3.6172 H   0  0  0  0  0  0  0  0  0  0  0  0
    3.0424    1.8738   -2.0652 H   0  0  0  0  0  0  0  0  0  0  0  0
    1.2215    1.4269    0.0387 H   0  0  0  0  0  0  0  0  0  0  0  0
   -1.9354    2.1528   -3.7012 H   0  0  0  0  0  0  0  0  0  0  0  0
   -3.0397    4.1689   -3.3936 H   0  0  0  0  0  0  0  0  0  0  0  0
   -4.0087    2.7577   -2.8389 H   0  0  0  0  0  0  0  0  0  0  0  0
   -4.3824    4.3864   -2.2664 H   0  0  0  0  0  0  0  0  0  0  0  0
    1.1001    3.2007    1.5146 H   0  0  0  0  0  0  0  0  0  0  0  0
    0.1220    1.7878    2.0473 H   0  0  0  0  0  0  0  0  0  0  0  0
   -0.1962    3.3982    2.6977 H   0  0  0  0  0  0  0  0  0  0  0  0
    0.4121   -3.0312   -3.8682 H   0  0  0  0  0  0  0  0  0  0  0  0
    0.2978   -4.4763   -1.8716 H   0  0  0  0  0  0  0  0  0  0  0  0
   -2.4063   -4.2027    0.7294 H   0  0  0  0  0  0  0  0  0  0  0  0
   -1.3449   -5.3373   -0.0732 H   0  0  0  0  0  0  0  0  0  0  0  0
    0.6647   -3.9810    0.7550 H   0  0  0  0  0  0  0  0  0  0  0  0
   -0.4305   -1.7926    1.1598 H   0  0  0  0  0  0  0  0  0  0  0  0
   -1.4612   -2.5139    2.4084 H   0  0  0  0  0  0  0  0  0  0  0  0
    0.2905   -2.4032    2.6484 H   0  0  0  0  0  0  0  0  0  0  0  0
    0.5289   -4.8466    3.0710 H   0  0  0  0  0  0  0  0  0  0  0  0
   -1.2206   -5.0795    2.9058 H   0  0  0  0  0  0  0  0  0  0  0  0
   -0.0977   -6.0335    1.9198 H   0  0  0  0  0  0  0  0  0  0  0  0
  1  2  2  0
  2  3  1  0
  3  4  1  0
  4  5  2  0
  4  6  2  0
  4  7  1  0
  7  8  1  0
  8  9  2  0
  9 10  1  0
 10 11  1  0
 11 12  1  0
 12 13  1  0
 13 14  1  0
  9 15  1  0
 15 16  2  0
 16 17  1  0
 17 18  2  0
 17 19  1  0
 19 20  1  0
 19 21  1  0
 21 22  2  0
 21 23  1  0
 23 24  2  0
 23 25  1  0
 25 26  1  0
  3 27  2  0
 27 28  1  0
 28 29  2  0
 29 30  1  0
 30 31  1  0
 31 32  1  0
 31 33  1  0
 29  1  1  0
 18  8  1  0
 14 10  1  0
 25 16  1  0
  1 34  1  0
  2 35  1  0
  7 36  1  0
 11 37  1  0
 11 38  1  0
 12 39  1  0
 12 40  1  0
 13 41  1  0
 13 42  1  0
 14 43  1  0
 14 44  1  0
 15 45  1  0
 18 46  1  0
 20 47  1  0
 20 48  1  0
 20 49  1  0
 26 50  1  0
 26 51  1  0
 26 52  1  0
 27 53  1  0
 28 54  1  0
 30 55  1  0
 30 56  1  0
 31 57  1  0
 32 58  1  0
 32 59  1  0
 32 60  1  0
 33 61  1  0
 33 62  1  0
 33 63  1  0
M  END
$$$$
